Version 4
SHEET 1 1612 956
WIRE -608 -144 -864 -144
WIRE -864 -48 -864 -144
WIRE -704 -48 -752 -48
WIRE -608 -48 -704 -48
WIRE -560 -48 -608 -48
WIRE -384 -48 -448 -48
WIRE -304 -48 -320 -48
WIRE -272 -48 -304 -48
WIRE -144 -48 -192 -48
WIRE -80 -48 -144 -48
WIRE 80 -48 -80 -48
WIRE -144 -32 -144 -48
WIRE -80 -32 -80 -48
WIRE -864 32 -864 16
WIRE -704 32 -864 32
WIRE -608 32 -704 32
WIRE -560 32 -608 32
WIRE -384 32 -448 32
WIRE -304 32 -304 -48
WIRE -304 32 -320 32
WIRE -144 48 -144 32
WIRE 80 64 80 -48
WIRE -752 128 -752 16
WIRE -608 144 -608 128
WIRE -560 144 -608 144
WIRE 80 208 80 144
WIRE 80 208 16 208
WIRE 80 272 80 208
WIRE 16 432 16 208
WIRE 96 432 16 432
WIRE 320 464 320 432
WIRE 320 464 272 464
WIRE -464 496 -464 480
WIRE -464 496 -480 496
WIRE -336 496 -464 496
WIRE -32 496 -64 496
WIRE 96 496 -32 496
WIRE -464 512 -464 496
WIRE -336 512 -336 496
WIRE 96 528 48 528
WIRE 432 528 352 528
WIRE 48 544 48 528
WIRE 1024 560 1008 560
WIRE -336 592 -336 576
WIRE -336 592 -464 592
WIRE -464 624 -464 592
WIRE 448 640 320 640
WIRE 512 640 448 640
WIRE 592 640 512 640
WIRE 896 672 768 672
WIRE 896 704 896 672
WIRE 928 704 896 704
WIRE 1024 704 1008 704
WIRE 320 800 320 640
WIRE 480 800 464 800
WIRE 592 800 480 800
FLAG -1200 -160 0
FLAG -1200 -240 vin
FLAG -752 128 0
FLAG -608 224 0
FLAG -864 -144 vin
FLAG -144 48 0
FLAG -80 48 0
FLAG 48 624 0
FLAG -560 144 sense
FLAG -144 496 sense
FLAG -32 560 0
FLAG -464 624 0
FLAG -464 400 vin
FLAG -480 496 bo_div
FLAG 272 432 0
FLAG 768 704 0
FLAG 1024 784 0
FLAG 768 640 hs
FLAG 1024 640 hs
FLAG 592 832 ho
FLAG 928 560 ho
FLAG -704 -48 hs
FLAG 1024 560 h_d
FLAG -656 -64 h_d
FLAG 1024 704 l_d
FLAG -656 112 l_d
FLAG 480 864 hs
FLAG 448 704 0
FLAG 592 736 0
FLAG 432 528 drv
FLAG 352 592 0
FLAG 592 672 drv
FLAG 592 704 drv
FLAG 512 560 vin
FLAG 384 432 0
FLAG -800 464 0
FLAG -800 384 vcc
FLAG 272 496 vcc
FLAG 96 464 bo_div
FLAG 80 352 0
SYMBOL AutoGenerated\\NCP1252A 176 480 R0
SYMATTR InstName U1
SYMBOL ind2 -544 48 R180
WINDOW 0 36 80 Left 2
WINDOW 3 36 40 Left 2
SYMATTR InstName Lp
SYMATTR Value 90µ
SYMATTR Type ind
SYMBOL ind2 -432 48 R180
WINDOW 0 36 80 Left 2
WINDOW 3 36 40 Left 2
SYMATTR InstName Ls
SYMATTR Value 22.5µ
SYMATTR Type ind
SYMBOL ind -720 -64 R0
SYMATTR InstName Lmag
SYMATTR Value 900µ
SYMBOL voltage -1200 -256 R0
SYMATTR InstName V1
SYMATTR Value 400
SYMBOL diode -384 -32 R270
WINDOW 0 32 32 VTop 2
WINDOW 3 0 32 VBottom 2
SYMATTR InstName D1
SYMBOL diode -384 48 R270
WINDOW 0 32 32 VTop 2
WINDOW 3 0 32 VBottom 2
SYMATTR InstName D2
SYMBOL diode -736 16 R180
WINDOW 0 24 64 Left 2
WINDOW 3 24 0 Left 2
SYMATTR InstName D3
SYMBOL diode -880 -48 R0
SYMATTR InstName D4
SYMBOL nmos -656 32 R0
SYMATTR InstName M1
SYMBOL nmos -656 -144 R0
SYMATTR InstName M2
SYMBOL ind -176 -64 R90
WINDOW 0 5 56 VBottom 2
WINDOW 3 32 56 VTop 2
SYMATTR InstName L1
SYMATTR Value 6µ
SYMBOL cap -160 -32 R0
SYMATTR InstName C1
SYMATTR Value 80µ
SYMATTR SpiceLine Rser=0.2
SYMBOL res -96 -48 R0
SYMATTR InstName R1
SYMATTR Value 100
SYMBOL res 32 528 R0
SYMATTR InstName Rt
SYMATTR Value 17.16k
SYMBOL res -624 128 R0
SYMATTR InstName Rsense
SYMATTR Value 0.444
SYMBOL res -48 480 R90
WINDOW 0 0 56 VBottom 2
WINDOW 3 32 56 VTop 2
SYMATTR InstName Rcomp
SYMATTR Value 17.5k
SYMBOL cap -48 496 R0
SYMATTR InstName C2
SYMATTR Value 12.5p
SYMBOL res -480 384 R0
SYMATTR InstName R2
SYMATTR Value 2Meg
SYMBOL res -480 496 R0
SYMATTR InstName R3
SYMATTR Value 5.571k
SYMBOL cap -352 512 R0
SYMATTR InstName C3
SYMATTR Value 1n
SYMBOL AutoGenerated\\UCC27714_TRANS 672 736 R0
SYMATTR InstName U2
SYMBOL res 1008 688 R0
SYMATTR InstName R4
SYMATTR Value 10k
SYMBOL res 1024 688 R90
WINDOW 0 0 56 VBottom 2
WINDOW 3 32 56 VTop 2
SYMATTR InstName R5
SYMATTR Value 2
SYMBOL res 1008 544 R0
SYMATTR InstName R6
SYMATTR Value 10k
SYMBOL res 1024 544 R90
WINDOW 0 0 56 VBottom 2
WINDOW 3 32 56 VTop 2
SYMATTR InstName R7
SYMATTR Value 2
SYMBOL cap 464 800 R0
SYMATTR InstName C4
SYMATTR Value 100n
SYMBOL diode 400 816 R270
WINDOW 0 32 32 VTop 2
WINDOW 3 0 32 VBottom 2
SYMATTR InstName D5
SYMBOL res 416 784 R90
WINDOW 0 0 56 VBottom 2
WINDOW 3 32 56 VTop 2
SYMATTR InstName R8
SYMATTR Value 2
SYMBOL cap 432 640 R0
SYMATTR InstName C5
SYMATTR Value 10µ
SYMBOL res 368 512 R90
WINDOW 0 0 56 VBottom 2
WINDOW 3 32 56 VTop 2
SYMATTR InstName R9
SYMATTR Value 51
SYMBOL cap 336 528 R0
SYMATTR InstName C6
SYMATTR Value 220p
SYMBOL res 496 544 R0
SYMATTR InstName R10
SYMATTR Value 10
SYMBOL cap 384 416 R90
WINDOW 0 0 32 VBottom 2
WINDOW 3 32 32 VTop 2
SYMATTR InstName C7
SYMATTR Value 1µ
SYMBOL voltage -800 368 R0
SYMATTR InstName V2
SYMATTR Value 12
SYMBOL res 64 256 R0
SYMATTR InstName R11
SYMATTR Value 10k
SYMBOL voltage 80 48 R0
SYMATTR InstName V3
SYMATTR Value 20
TEXT -216 -336 Left 2 !K1 Lp Ls 1
TEXT -1232 936 Left 2 !.tran 0.5
