Version 4
SHEET 1 880 680
WIRE 112 80 112 32
WIRE 272 80 272 32
WIRE 272 80 112 80
WIRE 432 80 432 32
WIRE 432 80 272 80
WIRE 112 112 112 80
FLAG 112 400 g
FLAG 112 -64 vcc
FLAG 272 -64 vcc
FLAG 432 -64 vcc
FLAG 64 16 a
IOPIN 64 16 In
FLAG 64 192 a
IOPIN 64 192 In
FLAG 224 16 b
IOPIN 224 16 In
FLAG 64 288 b
IOPIN 64 288 In
FLAG 64 384 c
IOPIN 64 384 In
FLAG 384 16 c
IOPIN 384 16 In
FLAG 432 80 d
IOPIN 432 80 In
SYMBOL nmos 64 112 R0
SYMATTR InstName M1
SYMBOL pmos 64 -64 R0
SYMATTR InstName M2
SYMBOL nmos 64 208 R0
SYMATTR InstName M3
SYMBOL nmos 64 304 R0
SYMATTR InstName M4
SYMBOL pmos 224 -64 R0
SYMATTR InstName M5
SYMBOL pmos 384 -64 R0
SYMATTR InstName M6
