Version 4
SHEET 1 1120 680
WIRE 512 32 352 32
WIRE 352 144 352 32
WIRE 992 144 352 144
WIRE 992 176 992 144
WIRE 352 208 352 144
WIRE 1040 288 1040 256
WIRE 352 320 352 304
WIRE 1040 320 1040 288
WIRE 992 400 992 176
WIRE 352 416 304 416
WIRE 1040 416 352 416
FLAG 304 -48 a
FLAG 304 400 a
FLAG 464 -48 b
FLAG 304 288 b
FLAG 352 -64 vcc
FLAG 1040 160 vcc
FLAG 304 416 g
FLAG 1040 288 z
FLAG 512 -64 vcc
SYMBOL nmos 304 320 R0
SYMATTR InstName M2
SYMBOL nmos 304 208 R0
SYMATTR InstName M3
SYMBOL pmos 464 32 M180
SYMATTR InstName M7
SYMBOL pmos 304 32 M180
SYMATTR InstName M8
SYMBOL nmos 992 320 R0
SYMATTR InstName M9
SYMBOL pmos 992 256 M180
SYMATTR InstName M10
