Version 4
SHEET 1 880 680
WIRE 272 160 272 96
WIRE 272 256 272 160
FLAG 272 160 a
FLAG 320 80 vcc
FLAG 320 272 g
FLAG 320 176 d
SYMBOL nmos 272 176 R0
SYMATTR InstName M1
SYMBOL pmos 272 176 M180
SYMATTR InstName M2
